13
-153105.263449854
C         -1.96986138e+00  3.11280056e-02  5.77400907e-02 A                             0              1-S-0 2-S-0 3-S-0 4-S-0  formal_charge=+0             extra_radical_pairs=+0            
H         -2.52239028e+00 -9.07440155e-01  4.58970557e-02 B                             0              0-S-0  formal_charge=+0             extra_radical_pairs=+0            
H         -2.51188112e+00  7.38492095e-01  6.89900219e-01 B                             0              0-S-0  formal_charge=+0             extra_radical_pairs=+0            
H         -1.95204630e+00  4.26941213e-01 -9.56434302e-01 B                             0              0-S-0  formal_charge=+0             extra_radical_pairs=+0            
N         -5.77548735e-01 -2.14544550e-01  5.08807829e-01 C                             0              0-S-0 5-S-0 6-S-0  formal_charge=+0             extra_radical_pairs=+0            
H         -7.05022859e-02  6.91869581e-01  5.44844452e-01 D                             0              4-S-0  formal_charge=+0             extra_radical_pairs=+0            
H         -6.20483357e-01 -5.50000242e-01  1.48316889e+00 D                             0              4-S-0  formal_charge=+0             extra_radical_pairs=+0            
O          1.63907390e+00 -6.32085701e-01 -1.06067711e+00 E                             1              8-S-0 9-S-0  formal_charge=+0             extra_radical_pairs=+0            
H          2.22411881e+00 -1.24618815e+00 -5.57872006e-01 F                             1              7-S-0  formal_charge=+0             extra_radical_pairs=+0            
H          7.60269061e-01 -8.00527764e-01 -6.32399539e-01 F                             1              7-S-0  formal_charge=+0             extra_radical_pairs=+0            
O          1.37449669e+00  1.69713696e+00  9.00834855e-02 E                             2              11-S-0 12-S-0  formal_charge=+0             extra_radical_pairs=+0            
H          1.70320703e+00  9.08905562e-01 -4.18235283e-01 F                             2              10-S-0  formal_charge=+0             extra_radical_pairs=+0            
H          1.21652583e+00  2.34369810e+00 -6.38049706e-01 F                             2              10-S-0  formal_charge=+0             extra_radical_pairs=+0            
