13
-153104.9679474542
C          2.78280420e+00  5.20142147e-01  5.29338307e-02 A                             0              1-S-0 2-S-0 3-S-0 4-S-0  formal_charge=+0             extra_radical_pairs=+0            
H          3.02634786e+00  6.36872887e-01  1.10763165e+00 B                             0              0-S-0  formal_charge=+0             extra_radical_pairs=+0            
H          3.67945479e+00  1.90989557e-01 -4.76306620e-01 B                             0              0-S-0  formal_charge=+0             extra_radical_pairs=+0            
H          2.48367628e+00  1.48996566e+00 -3.40971531e-01 B                             0              0-S-0  formal_charge=+0             extra_radical_pairs=+0            
N          1.64564480e+00 -4.29629141e-01 -8.21000376e-02 C                             0              0-S-0 5-S-0 6-S-0  formal_charge=+0             extra_radical_pairs=+0            
H          1.46211330e+00 -5.62008107e-01 -1.08950402e+00 D                             0              4-S-0  formal_charge=+0             extra_radical_pairs=+0            
H          1.96353271e+00 -1.35426637e+00  2.50262050e-01 D                             0              4-S-0  formal_charge=+0             extra_radical_pairs=+0            
O         -7.87683643e-01  3.73111969e-01  9.98764497e-01 E                             1              8-S-0 9-S-0  formal_charge=+0             extra_radical_pairs=+0            
H         -8.33511429e-01 -1.89976132e-01  1.80603248e+00 F                             1              7-S-0  formal_charge=+0             extra_radical_pairs=+0            
H          9.97136586e-02  1.23201391e-01  6.30387912e-01 F                             1              7-S-0  formal_charge=+0             extra_radical_pairs=+0            
O         -2.62125482e+00 -3.84186718e-01 -7.54304181e-01 E                             2              11-S-0 12-S-0  formal_charge=+0             extra_radical_pairs=+0            
H         -1.93947982e+00 -1.02191135e-01 -8.87579939e-02 F                             2              10-S-0  formal_charge=+0             extra_radical_pairs=+0            
H         -3.18928936e+00  4.23822654e-01 -7.82563534e-01 F                             2              10-S-0  formal_charge=+0             extra_radical_pairs=+0            
