13
-153104.9430098851
C          2.12563794e+00  3.20353716e-01 -2.85894541e-01 A                             0              1-S-0 2-S-0 3-S-0 4-S-0  formal_charge=+0             extra_radical_pairs=+0            
H          1.66079093e+00  1.19094335e+00  1.73756913e-01 B                             0              0-S-0  formal_charge=+0             extra_radical_pairs=+0            
H          3.19579684e+00  3.40945967e-01 -7.02254121e-02 B                             0              0-S-0  formal_charge=+0             extra_radical_pairs=+0            
H          1.98696582e+00  3.83409512e-01 -1.36386116e+00 B                             0              0-S-0  formal_charge=+0             extra_radical_pairs=+0            
N          1.45545831e+00 -9.09164013e-01  2.18390630e-01 C                             0              0-S-0 5-S-0 6-S-0  formal_charge=+0             extra_radical_pairs=+0            
H          1.93560818e+00 -1.72434157e+00 -1.95823612e-01 D                             0              4-S-0  formal_charge=+0             extra_radical_pairs=+0            
H          1.64496069e+00 -9.76956267e-01  1.23124227e+00 D                             0              4-S-0  formal_charge=+0             extra_radical_pairs=+0            
O         -1.27904410e+00 -7.43139694e-01 -2.55341598e-01 E                             1              8-S-0 9-S-0  formal_charge=+0             extra_radical_pairs=+0            
H         -2.97977938e-01 -8.20224193e-01 -1.25187025e-01 F                             1              7-S-0  formal_charge=+0             extra_radical_pairs=+0            
H         -1.61080236e+00 -1.49635649e+00  2.85982169e-01 F                             1              7-S-0  formal_charge=+0             extra_radical_pairs=+0            
O         -2.03820574e+00  1.55273555e+00  8.20160579e-01 E                             2              11-S-0 12-S-0  formal_charge=+0             extra_radical_pairs=+0            
H         -2.51019680e+00  1.96288218e+00  5.48982048e-02 F                             2              10-S-0  formal_charge=+0             extra_radical_pairs=+0            
H         -1.76806133e+00  6.83722185e-01  4.20995276e-01 F                             2              10-S-0  formal_charge=+0             extra_radical_pairs=+0            
