13
-153101.62787743285
C         -2.65785150e-02 -1.63504001e+00 -8.20680364e-01 A                             0              1-S-0 2-S-0 3-S-0 4-S-0  formal_charge=+0             extra_radical_pairs=+0            
H         -3.42994291e-01 -1.03888108e+00 -1.67521176e+00 B                             0              0-S-0  formal_charge=+0             extra_radical_pairs=+0            
H          8.95300910e-01 -2.15540193e+00 -1.09133075e+00 B                             0              0-S-0  formal_charge=+0             extra_radical_pairs=+0            
H         -7.94354971e-01 -2.38252553e+00 -6.25813996e-01 B                             0              0-S-0  formal_charge=+0             extra_radical_pairs=+0            
N          1.22260750e-01 -7.50583487e-01  3.62374838e-01 C                             0              0-S-0 5-S-0 6-S-0  formal_charge=+0             extra_radical_pairs=+0            
H          4.54793169e-01 -1.33599630e+00  1.14397409e+00 D                             0              4-S-0  formal_charge=+0             extra_radical_pairs=+0            
H          8.91164295e-01 -7.97683040e-02  1.72462309e-01 D                             0              4-S-0  formal_charge=+0             extra_radical_pairs=+0            
O          2.05959123e+00  1.23307721e+00 -8.53111955e-02 E                             1              8-S-0 9-S-0  formal_charge=+0             extra_radical_pairs=+0            
H          2.00822853e+00  1.84015255e+00  6.91449488e-01 F                             1              7-S-0  formal_charge=+0             extra_radical_pairs=+0            
H          1.71905067e+00  1.82274560e+00 -8.00019678e-01 F                             1              7-S-0  formal_charge=+0             extra_radical_pairs=+0            
O         -1.96169857e+00  1.04849333e+00  1.05209313e+00 E                             2              11-S-0 12-S-0  formal_charge=+0             extra_radical_pairs=+0            
H         -1.24931281e+00  4.00705395e-01  8.13411482e-01 F                             2              10-S-0  formal_charge=+0             extra_radical_pairs=+0            
H         -2.73718640e+00  4.41170445e-01  1.13095796e+00 F                             2              10-S-0  formal_charge=+0             extra_radical_pairs=+0            
