7
-60039.7638174657
C         -7.37711933e-01 -8.53469145e-03 -2.81951880e-02 A                             0              1-S-0 2-S-0 3-S-0 4-S-0  formal_charge=+0             extra_radical_pairs=+0            
H         -1.12253987e+00  1.00176965e+00 -1.59439799e-01 B                             0              0-S-0  formal_charge=+0             extra_radical_pairs=+0            
H         -1.12377354e+00 -6.26685628e-01 -8.45888668e-01 B                             0              0-S-0  formal_charge=+0             extra_radical_pairs=+0            
H         -1.14708757e+00 -3.91600570e-01  9.05476434e-01 B                             0              0-S-0  formal_charge=+0             extra_radical_pairs=+0            
N          7.17765658e-01  4.38018618e-02  7.38795801e-02 C                             0              0-S-0 5-S-0 6-S-0  formal_charge=+0             extra_radical_pairs=+0            
H          1.09081231e+00 -8.90051230e-01  1.97289267e-01 D                             0              4-S-0  formal_charge=+0             extra_radical_pairs=+0            
H          1.11351082e+00  3.99590477e-01 -7.88230726e-01 D                             0              4-S-0  formal_charge=+0             extra_radical_pairs=+0            
