16
-200165.0229223909
C          2.47223463e+00  2.13572580e-01 -6.76233331e-01 A                             0              1-S-0 2-S-0 3-S-0 4-S-0  formal_charge=+0             extra_radical_pairs=+0            
H          2.16468454e+00  1.23620432e+00 -8.88746292e-01 B                             0              0-S-0  formal_charge=+0             extra_radical_pairs=+0            
H          3.27819671e+00  2.47647140e-01  5.99647566e-02 B                             0              0-S-0  formal_charge=+0             extra_radical_pairs=+0            
H          2.86735904e+00 -2.20836066e-01 -1.59395597e+00 B                             0              0-S-0  formal_charge=+0             extra_radical_pairs=+0            
N          1.29453409e+00 -5.59397331e-01 -2.10251980e-01 C                             0              0-S-0 5-S-0 6-S-0  formal_charge=+0             extra_radical_pairs=+0            
H          1.61905460e+00 -1.51217873e+00  1.24643596e-02 D                             0              4-S-0  formal_charge=+0             extra_radical_pairs=+0            
H          9.39373931e-01 -1.35733429e-01  6.91206650e-01 D                             0              4-S-0  formal_charge=+0             extra_radical_pairs=+0            
O          1.43218259e-01  5.52346048e-01  1.85496896e+00 E                             1              8-S-0 9-S-0  formal_charge=+0             extra_radical_pairs=+0            
H         -1.28771550e-01 -4.86607300e-02  2.58649979e+00 F                             1              7-S-0  formal_charge=+0             extra_radical_pairs=+0            
H         -7.32517022e-01  7.58267516e-01  1.39964976e+00 F                             1              7-S-0  formal_charge=+0             extra_radical_pairs=+0            
O         -1.93143934e+00  8.77423188e-01  5.02695572e-01 E                             2              11-S-0 12-S-0  formal_charge=+0             extra_radical_pairs=+0            
H         -2.70921771e+00  3.29607247e-01  7.55138194e-01 F                             2              10-S-0  formal_charge=+0             extra_radical_pairs=+0            
H         -1.62946502e+00  4.64038310e-01 -3.68843316e-01 F                             2              10-S-0  formal_charge=+0             extra_radical_pairs=+0            
O         -9.57137877e-01 -2.34465669e-01 -1.49141190e+00 E                             3              14-S-0 15-S-0  formal_charge=+0             extra_radical_pairs=+0            
H         -1.29473172e+00 -1.14237544e+00 -1.66429415e+00 F                             3              13-S-0  formal_charge=+0             extra_radical_pairs=+0            
H         -3.35728748e-02 -4.02565057e-01 -1.12298540e+00 F                             3              13-S-0  formal_charge=+0             extra_radical_pairs=+0            
