16
-200166.231437061
C          2.29370066e+00 -8.55379238e-01 -1.92308554e-01 A                             0              1-S-0 2-S-0 3-S-0 4-S-0  formal_charge=+0             extra_radical_pairs=+0            
H          2.19607076e+00 -8.99627695e-01  8.91370823e-01 B                             0              0-S-0  formal_charge=+0             extra_radical_pairs=+0            
H          2.41516857e+00 -1.87500527e+00 -5.64563926e-01 B                             0              0-S-0  formal_charge=+0             extra_radical_pairs=+0            
H          3.20010878e+00 -2.98452942e-01 -4.27133378e-01 B                             0              0-S-0  formal_charge=+0             extra_radical_pairs=+0            
N          1.10815285e+00 -1.66913533e-01 -7.59183034e-01 C                             0              0-S-0 5-S-0 6-S-0  formal_charge=+0             extra_radical_pairs=+0            
H          1.20896831e+00 -1.71854553e-01 -1.78470428e+00 D                             0              4-S-0  formal_charge=+0             extra_radical_pairs=+0            
H          2.35466101e-01 -7.24923159e-01 -5.37974597e-01 D                             0              4-S-0  formal_charge=+0             extra_radical_pairs=+0            
O         -1.81234199e+00  8.32547467e-01  1.07256095e+00 E                             1              8-S-0 9-S-0  formal_charge=+0             extra_radical_pairs=+0            
H         -1.00543837e+00  1.40424128e+00  8.60072103e-01 F                             1              7-S-0  formal_charge=+0             extra_radical_pairs=+0            
H         -2.55453050e+00  1.32228463e+00  6.52039462e-01 F                             1              7-S-0  formal_charge=+0             extra_radical_pairs=+0            
O         -1.15643494e+00 -1.26911865e+00 -9.11053925e-02 E                             2              11-S-0 12-S-0  formal_charge=+0             extra_radical_pairs=+0            
H         -1.52381135e+00 -4.62167251e-01  3.91149482e-01 F                             2              10-S-0  formal_charge=+0             extra_radical_pairs=+0            
H         -1.08933454e+00 -1.93373002e+00  6.31836196e-01 F                             2              10-S-0  formal_charge=+0             extra_radical_pairs=+0            
O          2.54463793e-01  2.01679149e+00  3.83656572e-01 E                             3              14-S-0 15-S-0  formal_charge=+0             extra_radical_pairs=+0            
H          1.30894388e-01  2.66252363e+00 -3.48259777e-01 F                             3              13-S-0  formal_charge=+0             extra_radical_pairs=+0            
H          7.10128631e-01  1.24144019e+00 -7.35233437e-02 F                             3              13-S-0  formal_charge=+0             extra_radical_pairs=+0            
