16
-200167.0013515819
C         -2.62337405e+00 -2.33675638e-01 -4.46233849e-01 A                             0              1-S-0 2-S-0 3-S-0 4-S-0  formal_charge=+0             extra_radical_pairs=+0            
H         -2.26065865e+00 -6.23200777e-01 -1.39657576e+00 B                             0              0-S-0  formal_charge=+0             extra_radical_pairs=+0            
H         -3.22962408e+00 -1.00977015e+00  2.66338231e-02 B                             0              0-S-0  formal_charge=+0             extra_radical_pairs=+0            
H         -3.26860911e+00  6.19485706e-01 -6.54195369e-01 B                             0              0-S-0  formal_charge=+0             extra_radical_pairs=+0            
N         -1.46639531e+00  1.86230806e-01  3.82433983e-01 C                             0              0-S-0 5-S-0 6-S-0  formal_charge=+0             extra_radical_pairs=+0            
H         -1.83616428e+00  5.09848668e-01  1.28783944e+00 D                             0              4-S-0  formal_charge=+0             extra_radical_pairs=+0            
H         -8.56116049e-01 -6.54976519e-01  5.88171203e-01 D                             0              4-S-0  formal_charge=+0             extra_radical_pairs=+0            
O          2.77748755e-01 -1.70662438e+00  7.68171341e-01 E                             1              8-S-0 9-S-0  formal_charge=+0             extra_radical_pairs=+0            
H          1.05515673e+00 -1.21680312e+00  3.49110669e-01 F                             1              7-S-0  formal_charge=+0             extra_radical_pairs=+0            
H          1.83233666e-01 -2.49394017e+00  1.84672669e-01 F                             1              7-S-0  formal_charge=+0             extra_radical_pairs=+0            
O          4.81925101e-01  1.61421348e+00 -6.02010389e-01 E                             2              11-S-0 12-S-0  formal_charge=+0             extra_radical_pairs=+0            
H          2.36294515e-01  1.79487680e+00 -1.53702583e+00 F                             2              10-S-0  formal_charge=+0             extra_radical_pairs=+0            
H         -3.50112904e-01  1.18179257e+00 -2.29462584e-01 F                             2              10-S-0  formal_charge=+0             extra_radical_pairs=+0            
O          2.01025855e+00 -3.14484874e-01 -3.47687417e-01 E                             3              14-S-0 15-S-0  formal_charge=+0             extra_radical_pairs=+0            
H          1.46640986e+00  5.24385826e-01 -5.04880468e-01 F                             3              13-S-0  formal_charge=+0             extra_radical_pairs=+0            
H          2.72199323e+00 -7.24152120e-03  2.56870979e-01 F                             3              13-S-0  formal_charge=+0             extra_radical_pairs=+0            
