10
-106052.2614806133
C         -1.45237846e+00 -7.69573089e-01 -3.77702257e-02 A                             0              1-S-0 2-S-0 3-S-0 4-S-0  formal_charge=+0             extra_radical_pairs=+0            
H         -1.09376722e+00 -1.26920856e+00 -9.36380583e-01 B                             0              0-S-0  formal_charge=+0             extra_radical_pairs=+0            
H         -1.19943150e+00 -1.39718429e+00  8.21272178e-01 B                             0              0-S-0  formal_charge=+0             extra_radical_pairs=+0            
H         -2.53764216e+00 -7.05019516e-01 -1.00366532e-01 B                             0              0-S-0  formal_charge=+0             extra_radical_pairs=+0            
N         -8.75621371e-01  5.96409504e-01  2.62714527e-02 C                             0              0-S-0 5-S-0 6-S-0  formal_charge=+0             extra_radical_pairs=+0            
H         -1.20210727e+00  1.01601653e+00  9.11714531e-01 D                             0              4-S-0  formal_charge=+0             extra_radical_pairs=+0            
H          1.49180337e-01  4.97008080e-01  1.41650818e-01 D                             0              4-S-0  formal_charge=+0             extra_radical_pairs=+0            
O          1.99117244e+00  3.58626822e-01  2.84802640e-01 E                             1              8-S-0 9-S-0  formal_charge=+0             extra_radical_pairs=+0            
H          2.33529974e+00  7.06711896e-02 -5.94850694e-01 F                             1              7-S-0  formal_charge=+0             extra_radical_pairs=+0            
H          2.38818482e+00  1.26084690e+00  3.47060173e-01 F                             1              7-S-0  formal_charge=+0             extra_radical_pairs=+0            
