10
-106052.27062394591
C          1.62673263e+00 -5.05360678e-01 -8.27028188e-02 A                             0              1-S-0 2-S-0 3-S-0 4-S-0  formal_charge=+0             extra_radical_pairs=+0            
H          2.65042227e+00 -1.81904983e-01 -2.66090517e-01 B                             0              0-S-0  formal_charge=+0             extra_radical_pairs=+0            
H          1.61620503e+00 -1.08612033e+00  8.43749926e-01 B                             0              0-S-0  formal_charge=+0             extra_radical_pairs=+0            
H          1.33252457e+00 -1.16660004e+00 -8.96474930e-01 B                             0              0-S-0  formal_charge=+0             extra_radical_pairs=+0            
N          7.27319309e-01  6.74881242e-01 -6.19809123e-02 C                             0              0-S-0 5-S-0 6-S-0  formal_charge=+0             extra_radical_pairs=+0            
H         -2.23991636e-01  3.37975322e-01  1.72098088e-01 D                             0              4-S-0  formal_charge=+0             extra_radical_pairs=+0            
H          1.01007505e+00  1.25103339e+00  7.47075676e-01 D                             0              4-S-0  formal_charge=+0             extra_radical_pairs=+0            
O         -1.94882401e+00 -2.30992772e-01  5.34531788e-01 E                             1              8-S-0 9-S-0  formal_charge=+0             extra_radical_pairs=+0            
H         -2.24535573e+00 -8.34597297e-01 -1.88937239e-01 F                             1              7-S-0  formal_charge=+0             extra_radical_pairs=+0            
H         -2.56144060e+00  5.31479376e-01  3.96809073e-01 F                             1              7-S-0  formal_charge=+0             extra_radical_pairs=+0            
