10
-106052.2703748598
C          1.35520872e+00  8.70049744e-01  3.23678477e-01 A                             0              1-S-0 2-S-0 3-S-0 4-S-0  formal_charge=+0             extra_radical_pairs=+0            
H          2.44013589e+00  9.37964927e-01  3.90666638e-01 B                             0              0-S-0  formal_charge=+0             extra_radical_pairs=+0            
H          9.95144330e-01  1.74085244e+00 -2.31056675e-01 B                             0              0-S-0  formal_charge=+0             extra_radical_pairs=+0            
H          9.52156694e-01  9.25822944e-01  1.33385681e+00 B                             0              0-S-0  formal_charge=+0             extra_radical_pairs=+0            
N          9.73461083e-01 -4.29044751e-01 -2.84021623e-01 C                             0              0-S-0 5-S-0 6-S-0  formal_charge=+0             extra_radical_pairs=+0            
H         -5.71690135e-02 -4.32758111e-01 -3.89309809e-01 D                             0              4-S-0  formal_charge=+0             extra_radical_pairs=+0            
H          1.33750846e+00 -4.24152190e-01 -1.25041114e+00 D                             0              4-S-0  formal_charge=+0             extra_radical_pairs=+0            
O         -1.90278424e+00 -4.87977738e-01 -5.44738342e-01 E                             1              8-S-0 9-S-0  formal_charge=+0             extra_radical_pairs=+0            
H         -2.16788923e+00 -1.39946905e+00 -8.17609185e-01 F                             1              7-S-0  formal_charge=+0             extra_radical_pairs=+0            
H         -2.30399570e+00 -4.44881940e-01  3.56809438e-01 F                             1              7-S-0  formal_charge=+0             extra_radical_pairs=+0            
