10
-106052.26605347062
C          1.62453585e+00 -4.98591675e-01 -1.54360025e-01 A                             0              1-S-0 2-S-0 3-S-0 4-S-0  formal_charge=+0             extra_radical_pairs=+0            
H          2.67991521e+00 -2.32619636e-01 -1.93368503e-01 B                             0              0-S-0  formal_charge=+0             extra_radical_pairs=+0            
H          1.51691031e+00 -1.35520737e+00  5.17032980e-01 B                             0              0-S-0  formal_charge=+0             extra_radical_pairs=+0            
H          1.32048952e+00 -8.13516403e-01 -1.15140898e+00 B                             0              0-S-0  formal_charge=+0             extra_radical_pairs=+0            
N          8.25401738e-01  6.85506573e-01  2.47812853e-01 C                             0              0-S-0 5-S-0 6-S-0  formal_charge=+0             extra_radical_pairs=+0            
H         -1.62185490e-01  3.81763095e-01  3.24050289e-01 D                             0              4-S-0  formal_charge=+0             extra_radical_pairs=+0            
H          1.10577849e+00  9.20752141e-01  1.21352612e+00 D                             0              4-S-0  formal_charge=+0             extra_radical_pairs=+0            
O         -1.93961234e+00 -1.23920148e-01  3.91570655e-01 E                             1              8-S-0 9-S-0  formal_charge=+0             extra_radical_pairs=+0            
H         -2.48511433e+00  6.79672869e-01  5.71354327e-01 F                             1              7-S-0  formal_charge=+0             extra_radical_pairs=+0            
H         -2.22629530e+00 -3.35063405e-01 -5.29722784e-01 F                             1              7-S-0  formal_charge=+0             extra_radical_pairs=+0            
