10
-106052.27052914115
C          1.64638552e+00  7.51897400e-01  6.34394578e-02 A                             0              1-S-0 2-S-0 3-S-0 4-S-0  formal_charge=+0             extra_radical_pairs=+0            
H          1.28705533e+00  1.62253658e+00 -4.83323431e-01 B                             0              0-S-0  formal_charge=+0             extra_radical_pairs=+0            
H          1.54835068e+00  9.61253129e-01  1.13219796e+00 B                             0              0-S-0  formal_charge=+0             extra_radical_pairs=+0            
H          2.70514255e+00  6.28415523e-01 -1.60114599e-01 B                             0              0-S-0  formal_charge=+0             extra_radical_pairs=+0            
N          8.99044243e-01 -4.49679576e-01 -3.84088036e-01 C                             0              0-S-0 5-S-0 6-S-0  formal_charge=+0             extra_radical_pairs=+0            
H          1.23680701e+00 -1.24075860e+00  1.87413746e-01 D                             0              4-S-0  formal_charge=+0             extra_radical_pairs=+0            
H         -9.02969207e-02 -3.23625722e-01 -1.03819229e-01 D                             0              4-S-0  formal_charge=+0             extra_radical_pairs=+0            
O         -1.87648079e+00 -1.07721413e-01  3.38089000e-01 E                             1              8-S-0 9-S-0  formal_charge=+0             extra_radical_pairs=+0            
H         -2.39243509e+00 -8.25278704e-01 -1.02913246e-01 F                             1              7-S-0  formal_charge=+0             extra_radical_pairs=+0            
H         -2.23236008e+00  6.85374090e-01 -1.30922887e-01 F                             1              7-S-0  formal_charge=+0             extra_radical_pairs=+0            
